Version 4.1
SHEET 1 880 680
WIRE -16 64 -96 64
WIRE -16 80 -16 64
WIRE 112 80 -16 80
WIRE 432 96 208 96
WIRE 16 112 -16 112
WIRE 112 112 96 112
WIRE 640 112 528 112
WIRE -16 128 -16 112
WIRE -16 128 -96 128
WIRE 432 128 304 128
WIRE 304 192 304 128
WIRE 304 192 -128 192
FLAG -96 64 A
IOPIN -96 64 In
FLAG -96 128 B
IOPIN -96 128 In
FLAG -128 192 C
IOPIN -128 192 Out
SYMBOL INVERT 48 112 R0
SYMATTR InstName X3
SYMBOL ORx 480 112 R0
SYMATTR InstName X2
SYMBOL NOR 160 96 R0
SYMATTR InstName X1
TEXT 640 112 Left 2 ;Sum[0]
